# Options for the netCDF output, taken from
# https://mitgcm.readthedocs.io/en/latest/outp_pkgs/outp_pkgs.html
# The option `readgrid_mnc=False` does not seem to work, as the code still tries
# to read the `grid.*.nc` files.

 &MNC_01
 pickup_write_mnc = .TRUE.
 monitor_mnc      = .TRUE.
 pickup_read_mnc  = .TRUE.
 readgrid_mnc     = .TRUE.
 mnc_use_outdir	  = .FALSE.
 writegrid_mnc    = .FALSE.
 &

