 &DIAGNOSTICS_LIST
  dumpAtLast   = .FALSE.,
  diag_mnc     = .FALSE.,
#--
# Heat flux
  fields(1:5,1) = 'THETA','surForcT','oceQnet','oceQsw','TFLUX',
# do not specify levels => all levels are selected
  fileName(1) = 'heatflux',
# velocity and temperature output in the entire domain every hour 
  frequency(1) = -3600.0,

 &

 &DIAG_STATIS_PARMS
 &