# Start day of the simulation, format YYYYMMDD, HHMMSS

 &CAL_NML
 TheCalendar = 'gregorian'
 startDate_1 = 20240301
 startDate_2 = 000000
 &

